  
       XFOIL         Version 6.99
  
 Calculated polar for: NACA 2412                                       
  
 1 1 Reynolds number fixed          Mach number fixed         
  
 xtrf =   1.000 (top)        1.000 (bottom)  
 Mach =   0.000     Re =     1.300 e 6     Ncrit =   9.000
  
   alpha    CL        CD       CDp       CM     Top_Xtr  Bot_Xtr
  ------ -------- --------- --------- -------- -------- --------
  -5.000  -0.3098   0.00791   0.00257  -0.0552   0.9036   0.0665
  -4.000  -0.2002   0.00729   0.00197  -0.0545   0.8627   0.1045
  -3.000  -0.0900   0.00677   0.00153  -0.0539   0.8125   0.1689
  -2.000   0.0204   0.00635   0.00124  -0.0534   0.7539   0.2638
  -1.000   0.1304   0.00599   0.00108  -0.0530   0.6886   0.3966
   2.000   0.4497   0.00543   0.00147  -0.0485   0.5003   0.9379
   3.000   0.5752   0.00590   0.00176  -0.0511   0.4433   0.9881
   4.000   0.7184   0.00659   0.00214  -0.0583   0.3691   1.0000
   5.000   0.8119   0.00745   0.00263  -0.0547   0.2823   1.0000
   6.000   0.9038   0.00874   0.00344  -0.0511   0.1818   1.0000
   7.000   0.9978   0.01025   0.00451  -0.0481   0.1006   1.0000
   8.000   1.0933   0.01169   0.00571  -0.0456   0.0589   1.0000
   9.000   1.1878   0.01313   0.00706  -0.0430   0.0394   1.0000
  10.000   1.2777   0.01476   0.00868  -0.0399   0.0291   1.0000
  11.000   1.3624   0.01647   0.01046  -0.0361   0.0237   1.0000
  12.000   1.4315   0.01857   0.01267  -0.0299   0.0200   1.0000
  13.000   1.4849   0.02142   0.01567  -0.0224   0.0173   1.0000
  14.000   1.5359   0.02477   0.01924  -0.0163   0.0157   1.0000
  15.000   1.5590   0.03094   0.02567  -0.0104   0.0141   1.0000
