  
       XFOIL         Version 6.99
  
 Calculated polar for: NACA 2412                                       
  
 1 1 Reynolds number fixed          Mach number fixed         
  
 xtrf =   1.000 (top)        1.000 (bottom)  
 Mach =   0.000     Re =     1.500 e 6     Ncrit =   9.000
  
   alpha    CL        CD       CDp       CM     Top_Xtr  Bot_Xtr
  ------ -------- --------- --------- -------- -------- --------
  -3.000  -0.0912   0.00661   0.00144  -0.0536   0.7976   0.1592
  -2.000   0.0196   0.00623   0.00116  -0.0532   0.7374   0.2483
  -1.000   0.1302   0.00593   0.00102  -0.0529   0.6714   0.3697
   1.000   0.3482   0.00531   0.00112  -0.0516   0.5427   0.7578
   2.000   0.4532   0.00529   0.00137  -0.0495   0.4870   0.9134
   3.000   0.5679   0.00570   0.00166  -0.0496   0.4320   0.9835
   5.000   0.8131   0.00732   0.00256  -0.0551   0.2640   1.0000
   6.000   0.9048   0.00859   0.00336  -0.0514   0.1663   1.0000
   7.000   0.9998   0.00999   0.00437  -0.0486   0.0932   1.0000
   8.000   1.0963   0.01136   0.00552  -0.0462   0.0550   1.0000
   9.000   1.1920   0.01273   0.00679  -0.0438   0.0373   1.0000
  10.000   1.2842   0.01420   0.00826  -0.0409   0.0281   1.0000
  11.000   1.3706   0.01585   0.00995  -0.0374   0.0225   1.0000
  12.000   1.4452   0.01777   0.01197  -0.0320   0.0191   1.0000
  13.000   1.5030   0.02025   0.01459  -0.0247   0.0166   1.0000
  14.000   1.5530   0.02351   0.01802  -0.0181   0.0148   1.0000
  15.000   1.5891   0.02835   0.02311  -0.0122   0.0135   1.0000
