  
       XFOIL         Version 6.99
  
 Calculated polar for: NACA 2412                                       
  
 1 1 Reynolds number fixed          Mach number fixed         
  
 xtrf =   1.000 (top)        1.000 (bottom)  
 Mach =   0.000     Re =     1.880 e 6     Ncrit =   9.000
  
   alpha    CL        CD       CDp       CM     Top_Xtr  Bot_Xtr
  ------ -------- --------- --------- -------- -------- --------
  -2.000   0.0185   0.00608   0.00107  -0.0529   0.7103   0.2257
  -1.000   0.1300   0.00583   0.00094  -0.0527   0.6443   0.3335
   0.000   0.2404   0.00549   0.00091  -0.0525   0.5791   0.5141
   2.000   0.4585   0.00518   0.00123  -0.0510   0.4660   0.8643
   3.000   0.5639   0.00542   0.00153  -0.0489   0.4132   0.9689
   4.000   0.6945   0.00611   0.00191  -0.0531   0.3349   0.9949
   5.000   0.8151   0.00713   0.00248  -0.0557   0.2364   1.0000
   6.000   0.9067   0.00835   0.00324  -0.0518   0.1450   1.0000
   7.000   1.0027   0.00964   0.00419  -0.0491   0.0818   1.0000
   8.000   1.1007   0.01090   0.00525  -0.0470   0.0495   1.0000
   9.000   1.1980   0.01215   0.00642  -0.0448   0.0341   1.0000
  10.000   1.2922   0.01352   0.00776  -0.0423   0.0259   1.0000
  11.000   1.3805   0.01510   0.00937  -0.0390   0.0205   1.0000
  12.000   1.4601   0.01692   0.01126  -0.0345   0.0172   1.0000
  13.000   1.5258   0.01884   0.01330  -0.0279   0.0153   1.0000
  14.000   1.5782   0.02177   0.01639  -0.0209   0.0137   1.0000
  15.000   1.6236   0.02557   0.02037  -0.0149   0.0124   1.0000
