  
       XFOIL         Version 6.99
  
 Calculated polar for: NACA 2412                                       
  
 1 1 Reynolds number fixed          Mach number fixed         
  
 xtrf =   1.000 (top)        1.000 (bottom)  
 Mach =   0.000     Re =     2.170 e 6     Ncrit =   9.000
  
   alpha    CL        CD       CDp       CM     Top_Xtr  Bot_Xtr
  ------ -------- --------- --------- -------- -------- --------
  -3.000  -0.0937   0.00629   0.00126  -0.0529   0.7567   0.1352
  -2.000   0.0180   0.00599   0.00102  -0.0527   0.6929   0.2119
  -1.000   0.1299   0.00577   0.00090  -0.0527   0.6269   0.3139
   0.000   0.2410   0.00548   0.00087  -0.0526   0.5629   0.4760
   3.000   0.5657   0.00529   0.00146  -0.0495   0.3995   0.9530
   4.000   0.6861   0.00597   0.00184  -0.0514   0.3204   0.9930
   5.000   0.8165   0.00703   0.00243  -0.0560   0.2190   1.0000
   6.000   0.9080   0.00820   0.00318  -0.0522   0.1329   1.0000
   7.000   1.0044   0.00943   0.00409  -0.0495   0.0749   1.0000
   8.000   1.1036   0.01060   0.00508  -0.0475   0.0468   1.0000
   9.000   1.2019   0.01179   0.00618  -0.0455   0.0326   1.0000
  10.000   1.2968   0.01312   0.00748  -0.0431   0.0245   1.0000
  11.000   1.3878   0.01454   0.00893  -0.0402   0.0199   1.0000
  12.000   1.4707   0.01622   0.01067  -0.0362   0.0167   1.0000
  13.000   1.5356   0.01827   0.01280  -0.0294   0.0142   1.0000
  14.000   1.5948   0.02068   0.01536  -0.0229   0.0131   1.0000
  15.000   1.6360   0.02463   0.01948  -0.0160   0.0115   1.0000
