
 ===================================================
  XFOIL Version 6.99
  Copyright (C) 2000   Mark Drela, Harold Youngren

  This software comes with ABSOLUTELY NO WARRANTY,
    subject to the GNU General Public License.

  Caveat computor
 ===================================================

 File  xfoil.def  not found

   QUIT    Exit program

  .OPER    Direct operating point(s)
  .MDES    Complex mapping design routine
  .QDES    Surface speed design routine
  .GDES    Geometry design routine

   SAVE f  Write airfoil to labeled coordinate file
   PSAV f  Write airfoil to plain coordinate file
   ISAV f  Write airfoil to ISES coordinate file
   MSAV f  Write airfoil to MSES coordinate file
   REVE    Reverse written-airfoil node ordering

   LOAD f  Read buffer airfoil from coordinate file
   NACA i  Set NACA 4,5-digit airfoil and buffer airfoil
   INTE    Set buffer airfoil by interpolating two airfoils
   NORM    Buffer airfoil normalization toggle
   XYCM rr Change CM reference location, currently  0.25000 0.00000

   BEND    Display structural properties of current airfoil

   PCOP    Set current-airfoil panel nodes directly from buffer airfoil points
   PANE    Set current-airfoil panel nodes ( 160 ) based on curvature
  .PPAR    Show/change paneling

  .PLOP    Plotting options

   WDEF f  Write  current-settings file
   RDEF f  Reread current-settings file
   NAME s  Specify new airfoil name
   NINC    Increment name version number

   Z       Zoom    | (available in all menus)
   U       Unzoom  | 

 XFOIL   c>   Max thickness =     0.120035  at x =   0.300
 Max camber    =     0.020000  at x =   0.402

 Buffer airfoil set using 331 points

 Blunt trailing edge.  Gap =  0.00252

 Paneling parameters used...
   Number of panel nodes       160
   Panel bunching parameter    1.000
   TE/LE panel density ratio   0.150
   Refined-area/LE panel density ratio    0.200
   Top    side refined area x/c limits  1.000 1.000
   Bottom side refined area x/c limits  1.000 1.000

 XFOIL   c>  
 Blunt trailing edge.  Gap =  0.00252

 Paneling parameters used...
   Number of panel nodes       160
   Panel bunching parameter    1.000
   TE/LE panel density ratio   0.150
   Refined-area/LE panel density ratio    0.200
   Top    side refined area x/c limits  1.000 1.000
   Bottom side refined area x/c limits  1.000 1.000

 XFOIL   c>   N    command not recognized.  Type a "?" for list

 XFOIL   c>   400  command not recognized.  Type a "?" for list

 XFOIL   c>  
 XFOIL   c>  
 XFOIL   c>  
 XFOIL   c>  
.OPERi   c>  
.OPERi   c>  
 Sonic Cp =    -11.94      Sonic Q/Qinf =     3.948


.OPERi   c>  
 M  =    0.2325
 Re =   1631820

.OPERv   c>  
 Polar  1 newly created for accumulation
 Airfoil archived with polar: NACA 2412                                       

Enter  polar save filename  OR  <return> for no file   s>  
 Polar save file will NOT be written

Enter  polar dump filename  OR  <return> for no file   s>  
 Polar dump file will NOT be written

 Polar accumulation enabled

.OPERva   c>   Calculating unit vorticity distributions ...
 Calculating wake trajectory ...
 Calculating source influence matrix ...

 Solving BL system ...

 Initializing BL ...
    side            1  ...
 MRCHUE: Inverse mode at  53     Hk =   3.518
 MRCHUE: Inverse mode at  82     Hk =   2.500
    side            2  ...
 MRCHUE: Inverse mode at  80     Hk =   2.500

 Side 1  free  transition at x/c =  0.5463   53
 Side 2  free  transition at x/c =  0.5001   50

   1   rms: 0.1076E+00   max: -.8641E+00   D at   80  2   RLX: 0.579
       a = -0.083      CL =  0.2063
      Cm = -0.0466     CD =  0.00549   =>   CDf =  0.00487    CDp =  0.00061

 Side 1  free  transition at x/c =  0.5664   55
 Side 2  free  transition at x/c =  0.4830   49

   2   rms: 0.6175E-01   max: -.6239E+00   D at   80  2   RLX: 0.801
       a = -0.083      CL =  0.2135
      Cm = -0.0482     CD =  0.00556   =>   CDf =  0.00486    CDp =  0.00070

 Side 1  free  transition at x/c =  0.5854   56
 Side 2  free  transition at x/c =  0.4938   49

   3   rms: 0.4228E-01   max: -.7222E+00   C at   49  2   RLX: 0.692
       a = -0.083      CL =  0.2285
      Cm = -0.0517     CD =  0.00564   =>   CDf =  0.00474    CDp =  0.00090

 Side 1  free  transition at x/c =  0.5869   56
 Side 2  free  transition at x/c =  0.5057   50

   4   rms: 0.1688E-01   max: -.2528E+00   C at   50  2
       a = -0.083      CL =  0.2375
      Cm = -0.0538     CD =  0.00567   =>   CDf =  0.00469    CDp =  0.00098

 Side 1  free  transition at x/c =  0.5873   56
 Side 2  free  transition at x/c =  0.5118   50

   5   rms: 0.1557E-02   max: -.3263E-01   C at   50  2
       a = -0.083      CL =  0.2377
      Cm = -0.0538     CD =  0.00568   =>   CDf =  0.00467    CDp =  0.00101

 Side 1  free  transition at x/c =  0.5873   56
 Side 2  free  transition at x/c =  0.5125   50

   6   rms: 0.1126E-04   max: -.2517E-03   C at   50  2
       a = -0.083      CL =  0.2377
      Cm = -0.0538     CD =  0.00568   =>   CDf =  0.00467    CDp =  0.00101
 plradd ia,ip,cpol            1          81  0.21337655    

 Point added to stored polar  1
 Save file unspecified or not available
 Dump file unspecified or not available

.OPERva   c>  
.OPERva   c>  
.OPERva   c>  
        airfoil                    Re           Mach       Ncrit  XtripT  XtripB     file
       ------------------------  ------------  ----------  -----  ------  ------    -------------------
 >  1  NACA 2412                 1.632e6       0.232        9.00   1.000   1.000    

Enter polar output filename   s>  
.OPERva   c>  
 ==============================================================
 Polar  1
  
       XFOIL         Version 6.99
  
 Calculated polar for: NACA 2412                                       
  
 1 1 Reynolds number fixed          Mach number fixed         
  
 xtrf =   1.000 (top)        1.000 (bottom)  
 Mach =   0.232     Re =     1.632 e 6     Ncrit =   9.000
  
   alpha    CL        CD       CDp       CM     Top_Xtr  Bot_Xtr
  ------ -------- --------- --------- -------- -------- --------
  -0.083   0.2377   0.00568   0.00101  -0.0538   0.5873   0.5125

.OPERva   c>  
 XFOIL   c>  