
 ===================================================
  XFOIL Version 6.99
  Copyright (C) 2000   Mark Drela, Harold Youngren

  This software comes with ABSOLUTELY NO WARRANTY,
    subject to the GNU General Public License.

  Caveat computor
 ===================================================

 File  xfoil.def  not found

   QUIT    Exit program

  .OPER    Direct operating point(s)
  .MDES    Complex mapping design routine
  .QDES    Surface speed design routine
  .GDES    Geometry design routine

   SAVE f  Write airfoil to labeled coordinate file
   PSAV f  Write airfoil to plain coordinate file
   ISAV f  Write airfoil to ISES coordinate file
   MSAV f  Write airfoil to MSES coordinate file
   REVE    Reverse written-airfoil node ordering

   LOAD f  Read buffer airfoil from coordinate file
   NACA i  Set NACA 4,5-digit airfoil and buffer airfoil
   INTE    Set buffer airfoil by interpolating two airfoils
   NORM    Buffer airfoil normalization toggle
   XYCM rr Change CM reference location, currently  0.25000 0.00000

   BEND    Display structural properties of current airfoil

   PCOP    Set current-airfoil panel nodes directly from buffer airfoil points
   PANE    Set current-airfoil panel nodes ( 160 ) based on curvature
  .PPAR    Show/change paneling

  .PLOP    Plotting options

   WDEF f  Write  current-settings file
   RDEF f  Reread current-settings file
   NAME s  Specify new airfoil name
   NINC    Increment name version number

   Z       Zoom    | (available in all menus)
   U       Unzoom  | 

 XFOIL   c>   Max thickness =     0.120035  at x =   0.300
 Max camber    =     0.020000  at x =   0.402

 Buffer airfoil set using 331 points

 Blunt trailing edge.  Gap =  0.00252

 Paneling parameters used...
   Number of panel nodes       160
   Panel bunching parameter    1.000
   TE/LE panel density ratio   0.150
   Refined-area/LE panel density ratio    0.200
   Top    side refined area x/c limits  1.000 1.000
   Bottom side refined area x/c limits  1.000 1.000

 XFOIL   c>  
 Blunt trailing edge.  Gap =  0.00252

 Paneling parameters used...
   Number of panel nodes       160
   Panel bunching parameter    1.000
   TE/LE panel density ratio   0.150
   Refined-area/LE panel density ratio    0.200
   Top    side refined area x/c limits  1.000 1.000
   Bottom side refined area x/c limits  1.000 1.000

 XFOIL   c>   N    command not recognized.  Type a "?" for list

 XFOIL   c>   400  command not recognized.  Type a "?" for list

 XFOIL   c>  
 XFOIL   c>  
 XFOIL   c>  
 XFOIL   c>  
.OPERi   c>  
.OPERi   c>  
 Sonic Cp =    -39.85      Sonic Q/Qinf =     7.078


.OPERi   c>  
 M  =    0.1292
 Re =   2530220

.OPERv   c>  
 Polar  1 newly created for accumulation
 Airfoil archived with polar: NACA 2412                                       

Enter  polar save filename  OR  <return> for no file   s>  
 Polar save file will NOT be written

Enter  polar dump filename  OR  <return> for no file   s>  
 Polar dump file will NOT be written

 Polar accumulation enabled

.OPERva   c>   Calculating unit vorticity distributions ...
 Calculating wake trajectory ...
 Calculating source influence matrix ...

 Solving BL system ...

 Initializing BL ...
    side            1  ...
 MRCHUE: Inverse mode at  89     Hk =   2.500
 MRCHUE: Inverse mode at  90     Hk =   2.500
    side            2  ...
 MRCHUE: Inverse mode at  67     Hk =   4.257
 MRCHUE: Inverse mode at  68     Hk =   5.317
 MRCHUE: Inverse mode at  69     Hk =   6.291
 MRCHUE: Inverse mode at  70     Hk =   7.154
 MRCHUE: Inverse mode at  71     Hk =   5.167
 MRCHUE: Inverse mode at  72     Hk =   3.626

 Side 1  free  transition at x/c =  0.1317   35
 Side 2  free  transition at x/c =  0.9873   71

   1   rms: 0.1649E+00   max: 0.9187E+00   D at   75  2   RLX: 0.854
       a =  5.473      CL =  0.9203
      Cm = -0.0654     CD =  0.00709   =>   CDf =  0.00488    CDp =  0.00221

 Side 1  free  transition at x/c =  0.1369   35
 Side 2  free  transition at x/c =  0.9993   72

   2   rms: 0.4438E-01   max: 0.5532E+00   C at   35  1
       a =  5.702      CL =  0.9205
      Cm = -0.0603     CD =  0.00789   =>   CDf =  0.00488    CDp =  0.00301

 Side 1  free  transition at x/c =  0.1259   35
 Side 2 forced transition at x/c =  1.0000   72

   3   rms: 0.7723E-01   max: -.6631E+00   D at   72  2   RLX: 0.754
       a =  5.986      CL =  0.9205
      Cm = -0.0534     CD =  0.00816   =>   CDf =  0.00491    CDp =  0.00325

 Side 1  free  transition at x/c =  0.1125   34
 Side 2 forced transition at x/c =  1.0000   72

   4   rms: 0.9618E-02   max: -.1063E+00   C at   72  2
       a =  6.034      CL =  0.9205
      Cm = -0.0522     CD =  0.00821   =>   CDf =  0.00498    CDp =  0.00323

 Side 1  free  transition at x/c =  0.1125   34
 Side 2 forced transition at x/c =  1.0000   72

   5   rms: 0.1286E-02   max: 0.2070E-01   C at   72  2
       a =  6.032      CL =  0.9205
      Cm = -0.0522     CD =  0.00821   =>   CDf =  0.00496    CDp =  0.00324

 Side 1  free  transition at x/c =  0.1126   34
 Side 2 forced transition at x/c =  1.0000   72

   6   rms: 0.3363E-04   max: 0.5800E-03   C at   72  2
       a =  6.032      CL =  0.9205
      Cm = -0.0522     CD =  0.00821   =>   CDf =  0.00496    CDp =  0.00324
 plradd ia,ip,cpol            1          89  7.07539171E-03

 Point added to stored polar  1
 Save file unspecified or not available
 Dump file unspecified or not available

.OPERva   c>  
.OPERva   c>  
.OPERva   c>  
        airfoil                    Re           Mach       Ncrit  XtripT  XtripB     file
       ------------------------  ------------  ----------  -----  ------  ------    -------------------
 >  1  NACA 2412                 2.530e6       0.129        9.00   1.000   1.000    

Enter polar output filename   s>  
 Output file exists.  Overwrite?  Y

.OPERva   c>  
 XFOIL   c>  