
 ===================================================
  XFOIL Version 6.99
  Copyright (C) 2000   Mark Drela, Harold Youngren

  This software comes with ABSOLUTELY NO WARRANTY,
    subject to the GNU General Public License.

  Caveat computor
 ===================================================

 File  xfoil.def  not found

   QUIT    Exit program

  .OPER    Direct operating point(s)
  .MDES    Complex mapping design routine
  .QDES    Surface speed design routine
  .GDES    Geometry design routine

   SAVE f  Write airfoil to labeled coordinate file
   PSAV f  Write airfoil to plain coordinate file
   ISAV f  Write airfoil to ISES coordinate file
   MSAV f  Write airfoil to MSES coordinate file
   REVE    Reverse written-airfoil node ordering

   LOAD f  Read buffer airfoil from coordinate file
   NACA i  Set NACA 4,5-digit airfoil and buffer airfoil
   INTE    Set buffer airfoil by interpolating two airfoils
   NORM    Buffer airfoil normalization toggle
   XYCM rr Change CM reference location, currently  0.25000 0.00000

   BEND    Display structural properties of current airfoil

   PCOP    Set current-airfoil panel nodes directly from buffer airfoil points
   PANE    Set current-airfoil panel nodes ( 160 ) based on curvature
  .PPAR    Show/change paneling

  .PLOP    Plotting options

   WDEF f  Write  current-settings file
   RDEF f  Reread current-settings file
   NAME s  Specify new airfoil name
   NINC    Increment name version number

   Z       Zoom    | (available in all menus)
   U       Unzoom  | 

 XFOIL   c>   Max thickness =     0.120035  at x =   0.300
 Max camber    =     0.020000  at x =   0.402

 Buffer airfoil set using 331 points

 Blunt trailing edge.  Gap =  0.00252

 Paneling parameters used...
   Number of panel nodes       160
   Panel bunching parameter    1.000
   TE/LE panel density ratio   0.150
   Refined-area/LE panel density ratio    0.200
   Top    side refined area x/c limits  1.000 1.000
   Bottom side refined area x/c limits  1.000 1.000

 XFOIL   c>  
 XFOIL   c>  
 XFOIL   c>  
.OPERi   c>  
.OPERi   c>  
.OPERi   c>  
.OPERi   c>  
.OPERi   c>  
 Sonic Cp =    -77.39      Sonic Q/Qinf =     9.824


.OPERi   c>  
 M  =    0.0930
 Re =    652726

.OPERv   c>  
 Polar  1 newly created for accumulation
 Airfoil archived with polar: NACA 2412                                       

Enter  polar save filename  OR  <return> for no file   s>  
 Polar save file will NOT be written

Enter  polar dump filename  OR  <return> for no file   s>  
 Polar dump file will NOT be written

 Polar accumulation enabled

.OPERva   c>   Calculating unit vorticity distributions ...
 Calculating wake trajectory ...
 Calculating source influence matrix ...

 Solving BL system ...

 Initializing BL ...
    side            1  ...
 MRCHUE: Inverse mode at  25     Hk =   4.635
 MRCHUE: Inverse mode at  26     Hk =   5.670
 MRCHUE: Inverse mode at  27     Hk =   6.729
 MRCHUE: Inverse mode at  28     Hk =   7.835
 MRCHUE: Inverse mode at  29     Hk =   9.010
 MRCHUE: Inverse mode at  30     Hk =   7.167
 MRCHUE: Inverse mode at  31     Hk =   2.500
 MRCHUE: Inverse mode at  90     Hk =   2.500
 MRCHUE: Inverse mode at  91     Hk =   2.500
 MRCHUE: Inverse mode at  92     Hk =   2.500
 MRCHUE: Inverse mode at  93     Hk =   2.500
 MRCHUE: Inverse mode at  94     Hk =   2.500
 MRCHUE: Inverse mode at  95     Hk =   2.500
 MRCHUE: Convergence failed at  96  side 1    Res =  0.6878E+01
    side            2  ...
 MRCHUE: Inverse mode at  64     Hk =   3.848
 MRCHUE: Inverse mode at  65     Hk =   4.253
 MRCHUE: Inverse mode at  66     Hk =   4.482

 MRCHDU: Convergence failed at  96  side 1    Res =  0.6072E+01
 Side 1  free  transition at x/c =  0.0277   30
 Side 2 forced transition at x/c =  1.0000   66

   1   rms: 0.4017E+00   max: -.3386E+01   C at   66  2   RLX: 0.148
       a =  9.833      CL =  1.4200
      Cm = -0.0666     CD =  0.00871   =>   CDf =  0.00671    CDp =  0.00200

 Side 1  free  transition at x/c =  0.0288   30
 Side 2 forced transition at x/c =  1.0000   66

   2   rms: 0.3030E+00   max: -.2724E+01   C at   66  2   RLX: 0.184
       a =  9.833      CL =  1.3887
      Cm = -0.0612     CD =  0.01005   =>   CDf =  0.00677    CDp =  0.00328

 Side 1  free  transition at x/c =  0.0298   31
 Side 2 forced transition at x/c =  1.0000   66
 idif Ue xi dudx           1  9.41712931E-02  4.76360321E-03   19.768921    
 Uenew xinew           2  4.09348216E-03  2.07066536E-04

   3   rms: 0.2073E+00   max: -.1098E+01   C at   66  2   RLX: 0.455
       a =  9.833      CL =  1.3404
      Cm = -0.0525     CD =  0.01204   =>   CDf =  0.00709    CDp =  0.00495

 Side 1  free  transition at x/c =  0.0347   31
 Side 2 forced transition at x/c =  1.0000   67

   4   rms: 0.1292E+00   max: -.9151E+00   T at    2  2   RLX: 0.546
       a =  9.833      CL =  1.2974
      Cm = -0.0447     CD =  0.01466   =>   CDf =  0.00679    CDp =  0.00787

 Side 1  free  transition at x/c =  0.0384   31
 Side 2 forced transition at x/c =  1.0000   67

   5   rms: 0.6664E-01   max: 0.2944E+00   D at   31  1
       a =  9.833      CL =  1.2407
      Cm = -0.0353     CD =  0.01728   =>   CDf =  0.00673    CDp =  0.01055

 Side 1  free  transition at x/c =  0.0393   31
 Side 2 forced transition at x/c =  1.0000   67

   6   rms: 0.6286E-02   max: 0.4477E-01   D at   31  1
       a =  9.833      CL =  1.2347
      Cm = -0.0341     CD =  0.01751   =>   CDf =  0.00669    CDp =  0.01081

 Side 1  free  transition at x/c =  0.0394   31
 Side 2 forced transition at x/c =  1.0000   67

   7   rms: 0.1562E-03   max: 0.8837E-03   D at   73  2
       a =  9.833      CL =  1.2346
      Cm = -0.0341     CD =  0.01750   =>   CDf =  0.00668    CDp =  0.01082

 Side 1  free  transition at x/c =  0.0394   31
 Side 2 forced transition at x/c =  1.0000   67

   8   rms: 0.6189E-06   max: 0.7052E-05   C at   67  2
       a =  9.833      CL =  1.2346
      Cm = -0.0341     CD =  0.01750   =>   CDf =  0.00668    CDp =  0.01082
 plradd ia,ip,cpol            1          94  2.59297527E-03

 Point added to stored polar  1
 Save file unspecified or not available
 Dump file unspecified or not available

.OPERva   c>  
.OPERva   c>  
.OPERva   c>  
        airfoil                    Re           Mach       Ncrit  XtripT  XtripB     file
       ------------------------  ------------  ----------  -----  ------  ------    -------------------
 >  1  NACA 2412                 6.527e5       0.093        9.00   1.000   1.000    

Enter polar output filename   s>  
.OPERva   c>  
 ==============================================================
 Polar  1
  
       XFOIL         Version 6.99
  
 Calculated polar for: NACA 2412                                       
  
 1 1 Reynolds number fixed          Mach number fixed         
  
 xtrf =   1.000 (top)        1.000 (bottom)  
 Mach =   0.093     Re =     0.653 e 6     Ncrit =   9.000
  
   alpha    CL        CD       CDp       CM     Top_Xtr  Bot_Xtr
  ------ -------- --------- --------- -------- -------- --------
   9.833   1.2346   0.01750   0.01082  -0.0341   0.0394   1.0000

.OPERva   c>  
 XFOIL   c>  