
 ===================================================
  XFOIL Version 6.99
  Copyright (C) 2000   Mark Drela, Harold Youngren

  This software comes with ABSOLUTELY NO WARRANTY,
    subject to the GNU General Public License.

  Caveat computor
 ===================================================

 File  xfoil.def  not found

   QUIT    Exit program

  .OPER    Direct operating point(s)
  .MDES    Complex mapping design routine
  .QDES    Surface speed design routine
  .GDES    Geometry design routine

   SAVE f  Write airfoil to labeled coordinate file
   PSAV f  Write airfoil to plain coordinate file
   ISAV f  Write airfoil to ISES coordinate file
   MSAV f  Write airfoil to MSES coordinate file
   REVE    Reverse written-airfoil node ordering

   LOAD f  Read buffer airfoil from coordinate file
   NACA i  Set NACA 4,5-digit airfoil and buffer airfoil
   INTE    Set buffer airfoil by interpolating two airfoils
   NORM    Buffer airfoil normalization toggle
   XYCM rr Change CM reference location, currently  0.25000 0.00000

   BEND    Display structural properties of current airfoil

   PCOP    Set current-airfoil panel nodes directly from buffer airfoil points
   PANE    Set current-airfoil panel nodes ( 160 ) based on curvature
  .PPAR    Show/change paneling

  .PLOP    Plotting options

   WDEF f  Write  current-settings file
   RDEF f  Reread current-settings file
   NAME s  Specify new airfoil name
   NINC    Increment name version number

   Z       Zoom    | (available in all menus)
   U       Unzoom  | 

 XFOIL   c>   Max thickness =     0.120035  at x =   0.300
 Max camber    =     0.020000  at x =   0.402

 Buffer airfoil set using 331 points

 Blunt trailing edge.  Gap =  0.00252

 Paneling parameters used...
   Number of panel nodes       160
   Panel bunching parameter    1.000
   TE/LE panel density ratio   0.150
   Refined-area/LE panel density ratio    0.200
   Top    side refined area x/c limits  1.000 1.000
   Bottom side refined area x/c limits  1.000 1.000

 XFOIL   c>  
 Blunt trailing edge.  Gap =  0.00252

 Paneling parameters used...
   Number of panel nodes       160
   Panel bunching parameter    1.000
   TE/LE panel density ratio   0.150
   Refined-area/LE panel density ratio    0.200
   Top    side refined area x/c limits  1.000 1.000
   Bottom side refined area x/c limits  1.000 1.000

 XFOIL   c>   N    command not recognized.  Type a "?" for list

 XFOIL   c>   400  command not recognized.  Type a "?" for list

 XFOIL   c>  
 XFOIL   c>  
 XFOIL   c>  
 XFOIL   c>  
.OPERi   c>  
.OPERi   c>  
 Sonic Cp =     -3.27      Sonic Q/Qinf =     2.212


.OPERi   c>  
 M  =    0.4199
 Re =   5693350

.OPERv   c>  
 Polar  1 newly created for accumulation
 Airfoil archived with polar: NACA 2412                                       

Enter  polar save filename  OR  <return> for no file   s>  
 Polar save file will NOT be written

Enter  polar dump filename  OR  <return> for no file   s>  
 Polar dump file will NOT be written

 Polar accumulation enabled

.OPERva   c>   Calculating unit vorticity distributions ...
 Calculating wake trajectory ...
 Calculating source influence matrix ...

 Solving BL system ...

 Initializing BL ...
    side            1  ...
 MRCHUE: Inverse mode at  49     Hk =   5.282
 MRCHUE: Inverse mode at  50     Hk =   2.500
 MRCHUE: Inverse mode at  80     Hk =   2.500
    side            2  ...
 MRCHUE: Inverse mode at  29     Hk =   2.500
 MRCHUE: Inverse mode at  82     Hk =   2.500

 Side 1  free  transition at x/c =  0.5078   49
 Side 2  free  transition at x/c =  0.1320   29

   1   rms: 0.1441E+00   max: -.1553E+01   C at   29  2   RLX: 0.322
       a = -1.572      CL =  0.0475
      Cm = -0.0536     CD =  0.00533   =>   CDf =  0.00482    CDp =  0.00050

 Side 1  free  transition at x/c =  0.5109   49
 Side 2  free  transition at x/c =  0.1360   30

   2   rms: 0.8817E-01   max: -.9937E+00   D at   50  1   RLX: 0.503
       a = -1.538      CL =  0.0509
      Cm = -0.0530     CD =  0.00547   =>   CDf =  0.00482    CDp =  0.00066

 Side 1  free  transition at x/c =  0.5138   49
 Side 2  free  transition at x/c =  0.1420   30

   3   rms: 0.5401E-01   max: -.4798E+00   D at   82  2
       a = -1.639      CL =  0.0537
      Cm = -0.0564     CD =  0.00575   =>   CDf =  0.00481    CDp =  0.00094

 Side 1  free  transition at x/c =  0.5290   50
 Side 2  free  transition at x/c =  0.1385   30

   4   rms: 0.2241E-01   max: -.3100E+00   C at   50  1
       a = -1.703      CL =  0.0537
      Cm = -0.0582     CD =  0.00574   =>   CDf =  0.00480    CDp =  0.00095

 Side 1  free  transition at x/c =  0.5306   50
 Side 2  free  transition at x/c =  0.1355   29

   5   rms: 0.1806E-02   max: 0.2148E-01   C at   50  1
       a = -1.701      CL =  0.0537
      Cm = -0.0582     CD =  0.00575   =>   CDf =  0.00479    CDp =  0.00096

 Side 1  free  transition at x/c =  0.5303   50
 Side 2  free  transition at x/c =  0.1355   29

   6   rms: 0.1436E-04   max: -.1541E-03   D at   80  1
       a = -1.701      CL =  0.0537
      Cm = -0.0582     CD =  0.00575   =>   CDf =  0.00479    CDp =  0.00096
 plradd ia,ip,cpol            1          79  2.34600045E-02

 Point added to stored polar  1
 Save file unspecified or not available
 Dump file unspecified or not available

.OPERva   c>  
.OPERva   c>  
.OPERva   c>  
        airfoil                    Re           Mach       Ncrit  XtripT  XtripB     file
       ------------------------  ------------  ----------  -----  ------  ------    -------------------
 >  1  NACA 2412                 5.693e6       0.420        9.00   1.000   1.000    

Enter polar output filename   s>  
.OPERva   c>  
 ==============================================================
 Polar  1
  
       XFOIL         Version 6.99
  
 Calculated polar for: NACA 2412                                       
  
 1 1 Reynolds number fixed          Mach number fixed         
  
 xtrf =   1.000 (top)        1.000 (bottom)  
 Mach =   0.420     Re =     5.693 e 6     Ncrit =   9.000
  
   alpha    CL        CD       CDp       CM     Top_Xtr  Bot_Xtr
  ------ -------- --------- --------- -------- -------- --------
  -1.701   0.0537   0.00575   0.00096  -0.0582   0.5303   0.1355

.OPERva   c>  
 XFOIL   c>  