
 ===================================================
  XFOIL Version 6.99
  Copyright (C) 2000   Mark Drela, Harold Youngren

  This software comes with ABSOLUTELY NO WARRANTY,
    subject to the GNU General Public License.

  Caveat computor
 ===================================================

 File  xfoil.def  not found

   QUIT    Exit program

  .OPER    Direct operating point(s)
  .MDES    Complex mapping design routine
  .QDES    Surface speed design routine
  .GDES    Geometry design routine

   SAVE f  Write airfoil to labeled coordinate file
   PSAV f  Write airfoil to plain coordinate file
   ISAV f  Write airfoil to ISES coordinate file
   MSAV f  Write airfoil to MSES coordinate file
   REVE    Reverse written-airfoil node ordering

   LOAD f  Read buffer airfoil from coordinate file
   NACA i  Set NACA 4,5-digit airfoil and buffer airfoil
   INTE    Set buffer airfoil by interpolating two airfoils
   NORM    Buffer airfoil normalization toggle
   XYCM rr Change CM reference location, currently  0.25000 0.00000

   BEND    Display structural properties of current airfoil

   PCOP    Set current-airfoil panel nodes directly from buffer airfoil points
   PANE    Set current-airfoil panel nodes ( 160 ) based on curvature
  .PPAR    Show/change paneling

  .PLOP    Plotting options

   WDEF f  Write  current-settings file
   RDEF f  Reread current-settings file
   NAME s  Specify new airfoil name
   NINC    Increment name version number

   Z       Zoom    | (available in all menus)
   U       Unzoom  | 

 XFOIL   c>   Max thickness =     0.120035  at x =   0.300
 Max camber    =     0.000000  at x =   0.013

 Buffer airfoil set using 331 points

 Blunt trailing edge.  Gap =  0.00252

 Paneling parameters used...
   Number of panel nodes       160
   Panel bunching parameter    1.000
   TE/LE panel density ratio   0.150
   Refined-area/LE panel density ratio    0.200
   Top    side refined area x/c limits  1.000 1.000
   Bottom side refined area x/c limits  1.000 1.000

 XFOIL   c>  
 Blunt trailing edge.  Gap =  0.00252

 Paneling parameters used...
   Number of panel nodes       160
   Panel bunching parameter    1.000
   TE/LE panel density ratio   0.150
   Refined-area/LE panel density ratio    0.200
   Top    side refined area x/c limits  1.000 1.000
   Bottom side refined area x/c limits  1.000 1.000

 XFOIL   c>   N    command not recognized.  Type a "?" for list

 XFOIL   c>   400  command not recognized.  Type a "?" for list

 XFOIL   c>  
 XFOIL   c>  
 XFOIL   c>  
 XFOIL   c>  
.OPERi   c>  
.OPERi   c>  
 Sonic Cp =    -11.94      Sonic Q/Qinf =     3.948


.OPERi   c>  
 M  =    0.2325
 Re =   1257870

.OPERv   c>  
 Polar  1 newly created for accumulation
 Airfoil archived with polar: NACA 0012                                       

Enter  polar save filename  OR  <return> for no file   s>  
 Polar save file will NOT be written

Enter  polar dump filename  OR  <return> for no file   s>  
 Polar dump file will NOT be written

 Polar accumulation enabled

.OPERva   c>   Calculating unit vorticity distributions ...
 Calculating wake trajectory ...
 Calculating source influence matrix ...

 Solving BL system ...

 Initializing BL ...
    side            1  ...
 MRCHUE: Inverse mode at  56     Hk =   2.933
 MRCHUE: Inverse mode at  81     Hk =   2.500
    side            2  ...
 MRCHUE: Inverse mode at  55     Hk =   3.073
 MRCHUE: Inverse mode at  81     Hk =   2.500

 Side 1  free  transition at x/c =  0.6056   56
 Side 2  free  transition at x/c =  0.5886   55

   1   rms: 0.1107E+00   max: -.1604E+01   C at   56  1   RLX: 0.312
       a = -0.083      CL = -0.0089
      Cm = -0.0002     CD =  0.00497   =>   CDf =  0.00462    CDp =  0.00035

 Side 1  free  transition at x/c =  0.6104   57
 Side 2  free  transition at x/c =  0.5955   56

   2   rms: 0.8985E-01   max: -.1036E+01   C at   56  2   RLX: 0.483
       a = -0.083      CL = -0.0083
      Cm = -0.0003     CD =  0.00512   =>   CDf =  0.00461    CDp =  0.00051

 Side 1  free  transition at x/c =  0.6233   58
 Side 2  free  transition at x/c =  0.6066   57

   3   rms: 0.5706E-01   max: -.5218E+00   C at   58  1   RLX: 0.958
       a = -0.083      CL = -0.0087
      Cm = -0.0002     CD =  0.00531   =>   CDf =  0.00452    CDp =  0.00079

 Side 1  free  transition at x/c =  0.6386   58
 Side 2  free  transition at x/c =  0.6231   57

   4   rms: 0.1755E-01   max: -.1920E+00   C at   58  1
       a = -0.083      CL = -0.0093
      Cm = -0.0001     CD =  0.00544   =>   CDf =  0.00443    CDp =  0.00101

 Side 1  free  transition at x/c =  0.6435   59
 Side 2  free  transition at x/c =  0.6261   58

   5   rms: 0.2868E-02   max: -.3828E-01   C at   58  2
       a = -0.083      CL = -0.0094
      Cm = -0.0001     CD =  0.00542   =>   CDf =  0.00438    CDp =  0.00104

 Side 1  free  transition at x/c =  0.6437   59
 Side 2  free  transition at x/c =  0.6266   58

   6   rms: 0.2780E-04   max: 0.4395E-03   C at   58  2
       a = -0.083      CL = -0.0094
      Cm = -0.0001     CD =  0.00542   =>   CDf =  0.00437    CDp =  0.00105
 plradd ia,ip,cpol            1          80  0.10929030    

 Point added to stored polar  1
 Save file unspecified or not available
 Dump file unspecified or not available

.OPERva   c>  
.OPERva   c>  
.OPERva   c>  
        airfoil                    Re           Mach       Ncrit  XtripT  XtripB     file
       ------------------------  ------------  ----------  -----  ------  ------    -------------------
 >  1  NACA 0012                 1.258e6       0.232        9.00   1.000   1.000    

Enter polar output filename   s>  
.OPERva   c>  
 ==============================================================
 Polar  1
  
       XFOIL         Version 6.99
  
 Calculated polar for: NACA 0012                                       
  
 1 1 Reynolds number fixed          Mach number fixed         
  
 xtrf =   1.000 (top)        1.000 (bottom)  
 Mach =   0.232     Re =     1.258 e 6     Ncrit =   9.000
  
   alpha    CL        CD       CDp       CM     Top_Xtr  Bot_Xtr
  ------ -------- --------- --------- -------- -------- --------
  -0.083  -0.0094   0.00542   0.00105  -0.0001   0.6437   0.6266

.OPERva   c>  
 XFOIL   c>  