
 ===================================================
  XFOIL Version 6.99
  Copyright (C) 2000   Mark Drela, Harold Youngren

  This software comes with ABSOLUTELY NO WARRANTY,
    subject to the GNU General Public License.

  Caveat computor
 ===================================================

 File  xfoil.def  not found

   QUIT    Exit program

  .OPER    Direct operating point(s)
  .MDES    Complex mapping design routine
  .QDES    Surface speed design routine
  .GDES    Geometry design routine

   SAVE f  Write airfoil to labeled coordinate file
   PSAV f  Write airfoil to plain coordinate file
   ISAV f  Write airfoil to ISES coordinate file
   MSAV f  Write airfoil to MSES coordinate file
   REVE    Reverse written-airfoil node ordering

   LOAD f  Read buffer airfoil from coordinate file
   NACA i  Set NACA 4,5-digit airfoil and buffer airfoil
   INTE    Set buffer airfoil by interpolating two airfoils
   NORM    Buffer airfoil normalization toggle
   XYCM rr Change CM reference location, currently  0.25000 0.00000

   BEND    Display structural properties of current airfoil

   PCOP    Set current-airfoil panel nodes directly from buffer airfoil points
   PANE    Set current-airfoil panel nodes ( 160 ) based on curvature
  .PPAR    Show/change paneling

  .PLOP    Plotting options

   WDEF f  Write  current-settings file
   RDEF f  Reread current-settings file
   NAME s  Specify new airfoil name
   NINC    Increment name version number

   Z       Zoom    | (available in all menus)
   U       Unzoom  | 

 XFOIL   c>   Max thickness =     0.120035  at x =   0.300
 Max camber    =     0.000000  at x =   0.013

 Buffer airfoil set using 331 points

 Blunt trailing edge.  Gap =  0.00252

 Paneling parameters used...
   Number of panel nodes       160
   Panel bunching parameter    1.000
   TE/LE panel density ratio   0.150
   Refined-area/LE panel density ratio    0.200
   Top    side refined area x/c limits  1.000 1.000
   Bottom side refined area x/c limits  1.000 1.000

 XFOIL   c>  
 Blunt trailing edge.  Gap =  0.00252

 Paneling parameters used...
   Number of panel nodes       160
   Panel bunching parameter    1.000
   TE/LE panel density ratio   0.150
   Refined-area/LE panel density ratio    0.200
   Top    side refined area x/c limits  1.000 1.000
   Bottom side refined area x/c limits  1.000 1.000

 XFOIL   c>   N    command not recognized.  Type a "?" for list

 XFOIL   c>   400  command not recognized.  Type a "?" for list

 XFOIL   c>  
 XFOIL   c>  
 XFOIL   c>  
 XFOIL   c>  
.OPERi   c>  
.OPERi   c>  
 Sonic Cp =    -12.16      Sonic Q/Qinf =     3.982


.OPERi   c>  
 M  =    0.2304
 Re =   2324580

.OPERv   c>  
 Polar  1 newly created for accumulation
 Airfoil archived with polar: NACA 0012                                       

Enter  polar save filename  OR  <return> for no file   s>  
 Polar save file will NOT be written

Enter  polar dump filename  OR  <return> for no file   s>  
 Polar dump file will NOT be written

 Polar accumulation enabled

.OPERva   c>   Calculating unit vorticity distributions ...
 Calculating wake trajectory ...
 Calculating source influence matrix ...

 Solving BL system ...

 Initializing BL ...
    side            1  ...
 MRCHUE: Inverse mode at  51     Hk =   2.500
 MRCHUE: Inverse mode at  52     Hk =   2.500
 MRCHUE: Inverse mode at  81     Hk =   2.500
    side            2  ...
 MRCHUE: Inverse mode at  51     Hk =   2.500
 MRCHUE: Inverse mode at  52     Hk =   2.500
 MRCHUE: Inverse mode at  81     Hk =   2.500

 Side 1  free  transition at x/c =  0.5274   52
 Side 2  free  transition at x/c =  0.5254   52

   1   rms: 0.8717E-01   max: -.8654E+00   C at   52  2   RLX: 0.578
       a =  0.000      CL = -0.0002
      Cm =  0.0000     CD =  0.00485   =>   CDf =  0.00443    CDp =  0.00042

 Side 1  free  transition at x/c =  0.5396   52
 Side 2  free  transition at x/c =  0.5377   52

   2   rms: 0.4693E-01   max: -.5258E+00   D at   81  2   RLX: 0.951
       a =  0.000      CL = -0.0002
      Cm =  0.0001     CD =  0.00517   =>   CDf =  0.00441    CDp =  0.00076

 Side 1  free  transition at x/c =  0.5412   53
 Side 2  free  transition at x/c =  0.5405   53

   3   rms: 0.2092E-01   max: -.2592E+00   D at   81  2
       a =  0.000      CL = -0.0001
      Cm =  0.0000     CD =  0.00521   =>   CDf =  0.00441    CDp =  0.00080

 Side 1  free  transition at x/c =  0.5411   53
 Side 2  free  transition at x/c =  0.5413   53

   4   rms: 0.3628E-02   max: -.4104E-01   D at   81  2
       a =  0.000      CL = -0.0000
      Cm = -0.0000     CD =  0.00523   =>   CDf =  0.00440    CDp =  0.00082

 Side 1  free  transition at x/c =  0.5411   53
 Side 2  free  transition at x/c =  0.5413   53

   5   rms: 0.7330E-04   max: -.8184E-03   D at   81  2
       a =  0.000      CL = -0.0000
      Cm = -0.0000     CD =  0.00523   =>   CDf =  0.00440    CDp =  0.00083
 plradd ia,ip,cpol            1          80  0.10929018    

 Point added to stored polar  1
 Save file unspecified or not available
 Dump file unspecified or not available

.OPERva   c>  
.OPERva   c>  
.OPERva   c>  
        airfoil                    Re           Mach       Ncrit  XtripT  XtripB     file
       ------------------------  ------------  ----------  -----  ------  ------    -------------------
 >  1  NACA 0012                 2.325e6       0.230        9.00   1.000   1.000    

Enter polar output filename   s>  
.OPERva   c>  
 ==============================================================
 Polar  1
  
       XFOIL         Version 6.99
  
 Calculated polar for: NACA 0012                                       
  
 1 1 Reynolds number fixed          Mach number fixed         
  
 xtrf =   1.000 (top)        1.000 (bottom)  
 Mach =   0.230     Re =     2.325 e 6     Ncrit =   9.000
  
   alpha    CL        CD       CDp       CM     Top_Xtr  Bot_Xtr
  ------ -------- --------- --------- -------- -------- --------
   0.000  -0.0000   0.00523   0.00083  -0.0000   0.5411   0.5413

.OPERva   c>  
 XFOIL   c>  